[General]
network = IoTNetwork
sim-time-limit = 100s

**.constraintAreaMinX = 0m
**.constraintAreaMinY = 0m
**.constraintAreaMinZ = 0m
**.constraintAreaMaxX = 1200m
**.constraintAreaMaxY = 900m
**.constraintAreaMaxZ = 0m

*.configurator.addStaticRoutes = true
*.configurator.addDefaultRoutes = true
*.configurator.config = xmldoc("config.xml")

*.apA.wlan[*].radio.radioMediumModule = "radioMediumA"
*.cameraA[*].wlan[*].radio.radioMediumModule = "radioMediumA"
*.phoneA[*].wlan[*].radio.radioMediumModule = "radioMediumA"
*.watchA[*].wlan[*].radio.radioMediumModule = "radioMediumA"
*.apB.wlan[*].radio.radioMediumModule = "radioMediumB"
*.cameraB[*].wlan[*].radio.radioMediumModule = "radioMediumB"
*.phoneB[*].wlan[*].radio.radioMediumModule = "radioMediumB"
*.watchB[*].wlan[*].radio.radioMediumModule = "radioMediumB"
*.apC.wlan[*].radio.radioMediumModule = "radioMediumC"
*.cameraC[*].wlan[*].radio.radioMediumModule = "radioMediumC"
*.phoneC[*].wlan[*].radio.radioMediumModule = "radioMediumC"
*.watchC[*].wlan[*].radio.radioMediumModule = "radioMediumC"
*.apD.wlan[*].radio.radioMediumModule = "radioMediumD"
*.cameraD[*].wlan[*].radio.radioMediumModule = "radioMediumD"
*.phoneD[*].wlan[*].radio.radioMediumModule = "radioMediumD"
*.watchD[*].wlan[*].radio.radioMediumModule = "radioMediumD"
*.apE.wlan[*].radio.radioMediumModule = "radioMediumE"
*.cameraE[*].wlan[*].radio.radioMediumModule = "radioMediumE"
*.phoneE[*].wlan[*].radio.radioMediumModule = "radioMediumE"
*.watchE[*].wlan[*].radio.radioMediumModule = "radioMediumE"
*.apF.wlan[*].radio.radioMediumModule = "radioMediumF"
*.cameraF[*].wlan[*].radio.radioMediumModule = "radioMediumF"
*.phoneF[*].wlan[*].radio.radioMediumModule = "radioMediumF"
*.watchF[*].wlan[*].radio.radioMediumModule = "radioMediumF"
*.apG.wlan[*].radio.radioMediumModule = "radioMediumG"
*.cameraG[*].wlan[*].radio.radioMediumModule = "radioMediumG"
*.phoneG[*].wlan[*].radio.radioMediumModule = "radioMediumG"
*.apH.wlan[*].radio.radioMediumModule = "radioMediumH"
*.cameraH[*].wlan[*].radio.radioMediumModule = "radioMediumH"
*.phoneH[*].wlan[*].radio.radioMediumModule = "radioMediumH"
*.watchH[*].wlan[*].radio.radioMediumModule = "radioMediumH"
*.apI.wlan[*].radio.radioMediumModule = "radioMediumI"
*.cameraI[*].wlan[*].radio.radioMediumModule = "radioMediumI"
*.phoneI[*].wlan[*].radio.radioMediumModule = "radioMediumI"
*.watchI[*].wlan[*].radio.radioMediumModule = "radioMediumI"
*.apJ.wlan[*].radio.radioMediumModule = "radioMediumJ"
*.cameraJ[*].wlan[*].radio.radioMediumModule = "radioMediumJ"
*.phoneJ[*].wlan[*].radio.radioMediumModule = "radioMediumJ"
*.watchJ[*].wlan[*].radio.radioMediumModule = "radioMediumJ"

*.cameraA[*].wlan[*].mgmt.typename = "Ieee80211MgmtSta"
*.cameraA[*].wlan[*].agent.typename = "Ieee80211AgentSta"
*.phoneA[*].wlan[*].mgmt.typename = "Ieee80211MgmtSta"
*.phoneA[*].wlan[*].agent.typename = "Ieee80211AgentSta"
*.watchA[*].wlan[*].mgmt.typename = "Ieee80211MgmtSta"
*.watchA[*].wlan[*].agent.typename = "Ieee80211AgentSta"
*.apA.wlan[*].mgmt.typename = "Ieee80211MgmtAp"
*.apA.wlan[*].agent.typename = ""
*.cameraB[*].wlan[*].mgmt.typename = "Ieee80211MgmtSta"
*.cameraB[*].wlan[*].agent.typename = "Ieee80211AgentSta"
*.phoneB[*].wlan[*].mgmt.typename = "Ieee80211MgmtSta"
*.phoneB[*].wlan[*].agent.typename = "Ieee80211AgentSta"
*.watchB[*].wlan[*].mgmt.typename = "Ieee80211MgmtSta"
*.watchB[*].wlan[*].agent.typename = "Ieee80211AgentSta"
*.apB.wlan[*].mgmt.typename = "Ieee80211MgmtAp"
*.apB.wlan[*].agent.typename = ""
*.cameraC[*].wlan[*].mgmt.typename = "Ieee80211MgmtSta"
*.cameraC[*].wlan[*].agent.typename = "Ieee80211AgentSta"
*.phoneC[*].wlan[*].mgmt.typename = "Ieee80211MgmtSta"
*.phoneC[*].wlan[*].agent.typename = "Ieee80211AgentSta"
*.watchC[*].wlan[*].mgmt.typename = "Ieee80211MgmtSta"
*.watchC[*].wlan[*].agent.typename = "Ieee80211AgentSta"
*.apC.wlan[*].mgmt.typename = "Ieee80211MgmtAp"
*.apC.wlan[*].agent.typename = ""
*.cameraD[*].wlan[*].mgmt.typename = "Ieee80211MgmtSta"
*.cameraD[*].wlan[*].agent.typename = "Ieee80211AgentSta"
*.phoneD[*].wlan[*].mgmt.typename = "Ieee80211MgmtSta"
*.phoneD[*].wlan[*].agent.typename = "Ieee80211AgentSta"
*.watchD[*].wlan[*].mgmt.typename = "Ieee80211MgmtSta"
*.watchD[*].wlan[*].agent.typename = "Ieee80211AgentSta"
*.apD.wlan[*].mgmt.typename = "Ieee80211MgmtAp"
*.apD.wlan[*].agent.typename = ""
*.cameraE[*].wlan[*].mgmt.typename = "Ieee80211MgmtSta"
*.cameraE[*].wlan[*].agent.typename = "Ieee80211AgentSta"
*.phoneE[*].wlan[*].mgmt.typename = "Ieee80211MgmtSta"
*.phoneE[*].wlan[*].agent.typename = "Ieee80211AgentSta"
*.watchE[*].wlan[*].mgmt.typename = "Ieee80211MgmtSta"
*.watchE[*].wlan[*].agent.typename = "Ieee80211AgentSta"
*.apE.wlan[*].mgmt.typename = "Ieee80211MgmtAp"
*.apE.wlan[*].agent.typename = ""
*.cameraF[*].wlan[*].mgmt.typename = "Ieee80211MgmtSta"
*.cameraF[*].wlan[*].agent.typename = "Ieee80211AgentSta"
*.phoneF[*].wlan[*].mgmt.typename = "Ieee80211MgmtSta"
*.phoneF[*].wlan[*].agent.typename = "Ieee80211AgentSta"
*.watchF[*].wlan[*].mgmt.typename = "Ieee80211MgmtSta"
*.watchF[*].wlan[*].agent.typename = "Ieee80211AgentSta"
*.apF.wlan[*].mgmt.typename = "Ieee80211MgmtAp"
*.apF.wlan[*].agent.typename = ""
*.cameraG[*].wlan[*].mgmt.typename = "Ieee80211MgmtSta"
*.cameraG[*].wlan[*].agent.typename = "Ieee80211AgentSta"
*.phoneG[*].wlan[*].mgmt.typename = "Ieee80211MgmtSta"
*.phoneG[*].wlan[*].agent.typename = "Ieee80211AgentSta"
*.apG.wlan[*].mgmt.typename = "Ieee80211MgmtAp"
*.apG.wlan[*].agent.typename = ""
*.cameraH[*].wlan[*].mgmt.typename = "Ieee80211MgmtSta"
*.cameraH[*].wlan[*].agent.typename = "Ieee80211AgentSta"
*.phoneH[*].wlan[*].mgmt.typename = "Ieee80211MgmtSta"
*.phoneH[*].wlan[*].agent.typename = "Ieee80211AgentSta"
*.watchH[*].wlan[*].mgmt.typename = "Ieee80211MgmtSta"
*.watchH[*].wlan[*].agent.typename = "Ieee80211AgentSta"
*.apH.wlan[*].mgmt.typename = "Ieee80211MgmtAp"
*.apH.wlan[*].agent.typename = ""
*.cameraI[*].wlan[*].mgmt.typename = "Ieee80211MgmtSta"
*.cameraI[*].wlan[*].agent.typename = "Ieee80211AgentSta"
*.phoneI[*].wlan[*].mgmt.typename = "Ieee80211MgmtSta"
*.phoneI[*].wlan[*].agent.typename = "Ieee80211AgentSta"
*.watchI[*].wlan[*].mgmt.typename = "Ieee80211MgmtSta"
*.watchI[*].wlan[*].agent.typename = "Ieee80211AgentSta"
*.apI.wlan[*].mgmt.typename = "Ieee80211MgmtAp"
*.apI.wlan[*].agent.typename = ""
*.cameraJ[*].wlan[*].mgmt.typename = "Ieee80211MgmtSta"
*.cameraJ[*].wlan[*].agent.typename = "Ieee80211AgentSta"
*.phoneJ[*].wlan[*].mgmt.typename = "Ieee80211MgmtSta"
*.phoneJ[*].wlan[*].agent.typename = "Ieee80211AgentSta"
*.watchJ[*].wlan[*].mgmt.typename = "Ieee80211MgmtSta"
*.watchJ[*].wlan[*].agent.typename = "Ieee80211AgentSta"
*.apJ.wlan[*].mgmt.typename = "Ieee80211MgmtAp"
*.apJ.wlan[*].agent.typename = ""

**.wlan[*].radio.transmitter.power = 20mW
**.wlan[*].bitrate = 11Mbps

*.apA.mobility.initialX = 150m
*.apA.mobility.initialY = 150m
*.apA.mobility.initialZ = 0m
*.apB.mobility.initialX = 450m
*.apB.mobility.initialY = 150m
*.apB.mobility.initialZ = 0m
*.apC.mobility.initialX = 750m
*.apC.mobility.initialY = 150m
*.apC.mobility.initialZ = 0m
*.apD.mobility.initialX = 1050m
*.apD.mobility.initialY = 150m
*.apD.mobility.initialZ = 0m
*.apE.mobility.initialX = 150m
*.apE.mobility.initialY = 450m
*.apE.mobility.initialZ = 0m
*.apF.mobility.initialX = 450m
*.apF.mobility.initialY = 450m
*.apF.mobility.initialZ = 0m
*.apG.mobility.initialX = 750m
*.apG.mobility.initialY = 450m
*.apG.mobility.initialZ = 0m
*.apH.mobility.initialX = 1050m
*.apH.mobility.initialY = 450m
*.apH.mobility.initialZ = 0m
*.apI.mobility.initialX = 150m
*.apI.mobility.initialY = 750m
*.apI.mobility.initialZ = 0m
*.apJ.mobility.initialX = 450m
*.apJ.mobility.initialY = 750m
*.apJ.mobility.initialZ = 0m

*.cameraA[0].mobility.initialX = 98m
*.cameraA[0].mobility.initialY = 187m
*.cameraA[0].mobility.initialZ = 0m
*.phoneA[0].mobility.initialX = 192m
*.phoneA[0].mobility.initialY = 79m
*.phoneA[0].mobility.initialZ = 0m
*.phoneA[1].mobility.initialX = 96m
*.phoneA[1].mobility.initialY = 191m
*.phoneA[1].mobility.initialZ = 0m
*.watchA[0].mobility.initialX = 97m
*.watchA[0].mobility.initialY = 208m
*.watchA[0].mobility.initialZ = 0m
*.watchA[1].mobility.initialX = 64m
*.watchA[1].mobility.initialY = 206m
*.watchA[1].mobility.initialZ = 0m
*.cameraB[0].mobility.initialX = 496m
*.cameraB[0].mobility.initialY = 180m
*.cameraB[0].mobility.initialZ = 0m
*.cameraB[1].mobility.initialX = 467m
*.cameraB[1].mobility.initialY = 108m
*.cameraB[1].mobility.initialZ = 0m
*.phoneB[0].mobility.initialX = 526m
*.phoneB[0].mobility.initialY = 191m
*.phoneB[0].mobility.initialZ = 0m
*.watchB[0].mobility.initialX = 533m
*.watchB[0].mobility.initialY = 124m
*.watchB[0].mobility.initialZ = 0m
*.watchB[1].mobility.initialX = 350m
*.watchB[1].mobility.initialY = 106m
*.watchB[1].mobility.initialZ = 0m
*.cameraC[0].mobility.initialX = 673m
*.cameraC[0].mobility.initialY = 220m
*.cameraC[0].mobility.initialZ = 0m
*.cameraC[1].mobility.initialX = 691m
*.cameraC[1].mobility.initialY = 122m
*.cameraC[1].mobility.initialZ = 0m
*.phoneC[0].mobility.initialX = 731m
*.phoneC[0].mobility.initialY = 63m
*.phoneC[0].mobility.initialZ = 0m
*.phoneC[1].mobility.initialX = 802m
*.phoneC[1].mobility.initialY = 162m
*.phoneC[1].mobility.initialZ = 0m
*.watchC[0].mobility.initialX = 645m
*.watchC[0].mobility.initialY = 152m
*.watchC[0].mobility.initialZ = 0m
*.cameraD[0].mobility.initialX = 1021m
*.cameraD[0].mobility.initialY = 206m
*.cameraD[0].mobility.initialZ = 0m
*.cameraD[1].mobility.initialX = 982m
*.cameraD[1].mobility.initialY = 146m
*.cameraD[1].mobility.initialZ = 0m
*.cameraD[2].mobility.initialX = 1125m
*.cameraD[2].mobility.initialY = 231m
*.cameraD[2].mobility.initialZ = 0m
*.phoneD[0].mobility.initialX = 1065m
*.phoneD[0].mobility.initialY = 267m
*.phoneD[0].mobility.initialZ = 0m
*.watchD[0].mobility.initialX = 987m
*.watchD[0].mobility.initialY = 168m
*.watchD[0].mobility.initialZ = 0m
*.cameraE[0].mobility.initialX = 132m
*.cameraE[0].mobility.initialY = 367m
*.cameraE[0].mobility.initialZ = 0m
*.phoneE[0].mobility.initialX = 244m
*.phoneE[0].mobility.initialY = 382m
*.phoneE[0].mobility.initialZ = 0m
*.phoneE[1].mobility.initialX = 147m
*.phoneE[1].mobility.initialY = 378m
*.phoneE[1].mobility.initialZ = 0m
*.watchE[0].mobility.initialX = 97m
*.watchE[0].mobility.initialY = 448m
*.watchE[0].mobility.initialZ = 0m
*.watchE[1].mobility.initialX = 125m
*.watchE[1].mobility.initialY = 493m
*.watchE[1].mobility.initialZ = 0m
*.cameraF[0].mobility.initialX = 481m
*.cameraF[0].mobility.initialY = 370m
*.cameraF[0].mobility.initialZ = 0m
*.cameraF[1].mobility.initialX = 364m
*.cameraF[1].mobility.initialY = 445m
*.cameraF[1].mobility.initialZ = 0m
*.phoneF[0].mobility.initialX = 407m
*.phoneF[0].mobility.initialY = 433m
*.phoneF[0].mobility.initialZ = 0m
*.phoneF[1].mobility.initialX = 541m
*.phoneF[1].mobility.initialY = 477m
*.phoneF[1].mobility.initialZ = 0m
*.watchF[0].mobility.initialX = 407m
*.watchF[0].mobility.initialY = 503m
*.watchF[0].mobility.initialZ = 0m
*.cameraG[0].mobility.initialX = 839m
*.cameraG[0].mobility.initialY = 408m
*.cameraG[0].mobility.initialZ = 0m
*.phoneG[0].mobility.initialX = 641m
*.phoneG[0].mobility.initialY = 415m
*.phoneG[0].mobility.initialZ = 0m
*.phoneG[1].mobility.initialX = 784m
*.phoneG[1].mobility.initialY = 419m
*.phoneG[1].mobility.initialZ = 0m
*.phoneG[2].mobility.initialX = 719m
*.phoneG[2].mobility.initialY = 380m
*.phoneG[2].mobility.initialZ = 0m
*.phoneG[3].mobility.initialX = 809m
*.phoneG[3].mobility.initialY = 505m
*.phoneG[3].mobility.initialZ = 0m
*.cameraH[0].mobility.initialX = 990m
*.cameraH[0].mobility.initialY = 375m
*.cameraH[0].mobility.initialZ = 0m
*.phoneH[0].mobility.initialX = 1065m
*.phoneH[0].mobility.initialY = 496m
*.phoneH[0].mobility.initialZ = 0m
*.phoneH[1].mobility.initialX = 1103m
*.phoneH[1].mobility.initialY = 520m
*.phoneH[1].mobility.initialZ = 0m
*.watchH[0].mobility.initialX = 1034m
*.watchH[0].mobility.initialY = 383m
*.watchH[0].mobility.initialZ = 0m
*.watchH[1].mobility.initialX = 1081m
*.watchH[1].mobility.initialY = 420m
*.watchH[1].mobility.initialZ = 0m
*.cameraI[0].mobility.initialX = 72m
*.cameraI[0].mobility.initialY = 727m
*.cameraI[0].mobility.initialZ = 0m
*.phoneI[0].mobility.initialX = 52m
*.phoneI[0].mobility.initialY = 746m
*.phoneI[0].mobility.initialZ = 0m
*.phoneI[1].mobility.initialX = 135m
*.phoneI[1].mobility.initialY = 859m
*.phoneI[1].mobility.initialZ = 0m
*.phoneI[2].mobility.initialX = 137m
*.phoneI[2].mobility.initialY = 661m
*.phoneI[2].mobility.initialZ = 0m
*.watchI[0].mobility.initialX = 115m
*.watchI[0].mobility.initialY = 665m
*.watchI[0].mobility.initialZ = 0m
*.cameraJ[0].mobility.initialX = 388m
*.cameraJ[0].mobility.initialY = 726m
*.cameraJ[0].mobility.initialZ = 0m
*.phoneJ[0].mobility.initialX = 354m
*.phoneJ[0].mobility.initialY = 801m
*.phoneJ[0].mobility.initialZ = 0m
*.watchJ[0].mobility.initialX = 499m
*.watchJ[0].mobility.initialY = 771m
*.watchJ[0].mobility.initialZ = 0m
*.watchJ[1].mobility.initialX = 536m
*.watchJ[1].mobility.initialY = 680m
*.watchJ[1].mobility.initialZ = 0m
*.watchJ[2].mobility.initialX = 369m
*.watchJ[2].mobility.initialY = 710m
*.watchJ[2].mobility.initialZ = 0m

*.cameraA[*].numApps = 0
*.phoneA[*].numApps = 0
*.watchA[*].numApps = 0
*.cameraB[*].numApps = 0
*.phoneB[*].numApps = 0
*.watchB[*].numApps = 0
*.cameraC[*].numApps = 0
*.phoneC[*].numApps = 0
*.watchC[*].numApps = 0
*.cameraD[*].numApps = 0
*.phoneD[*].numApps = 0
*.watchD[*].numApps = 0
*.cameraE[*].numApps = 0
*.phoneE[*].numApps = 0
*.watchE[*].numApps = 0
*.cameraF[*].numApps = 0
*.phoneF[*].numApps = 0
*.watchF[*].numApps = 0
*.cameraG[*].numApps = 0
*.phoneG[*].numApps = 0
*.watchG[*].numApps = 0
*.cameraH[*].numApps = 0
*.phoneH[*].numApps = 0
*.watchH[*].numApps = 0
*.cameraI[*].numApps = 0
*.phoneI[*].numApps = 0
*.watchI[*].numApps = 0
*.cameraJ[*].numApps = 0
*.phoneJ[*].numApps = 0
*.watchJ[*].numApps = 0