[General]
network = IoTNetwork
sim-time-limit = 100s
ned-path = ./:/home/ubuntuy/omnetpp-6.0.3/samples/inet4.5/src

**.constraintAreaMinX = 0m
**.constraintAreaMinY = 0m
**.constraintAreaMinZ = 0m
**.constraintAreaMaxX = 1200m
**.constraintAreaMaxY = 900m
**.constraintAreaMaxZ = 0m

*.configurator.addStaticRoutes = false
*.configurator.addDefaultRoutes = false
*.configurator.addSubnetRoutes = false
*.configurator.config = xmldoc("config.xml")

**.wlan[*].radio.radioMediumModule = "radioMedium"

**.wlan[*].radio.transmitter.power = 20mW
**.wlan[*].bitrate = 11Mbps

# --- Parametres AODV — convergence rapide ---
**.aodv.activeRouteTimeout = 3s
**.aodv.deletePeriod = 5s
**.aodv.helloInterval = 0.5s
**.aodv.allowedHelloLoss = 2
**.aodv.rreqRetries = 3
**.aodv.rreqRatelimit = 10
**.aodv.ttlStart = 2
**.aodv.ttlIncrement = 2
**.aodv.ttlThreshold = 7
**.aodv.jitterPar = 0.005s
**.aodv.displayBubbles = true

# --- PUF Auth App ---
**.pufAuthApp.authStartTime = 8s
**.pufAuthApp.authInterval = 2s
**.pufAuthApp.cmdenv-log-level = trace

# --- Positions initiales ---
*.cameraA[0].mobility.initialX = 114m
*.cameraA[0].mobility.initialY = 54m
*.cameraA[0].mobility.initialZ = 0m
*.cameraA[1].mobility.initialX = 221m
*.cameraA[1].mobility.initialY = 219m
*.cameraA[1].mobility.initialZ = 0m
*.phoneA[0].mobility.initialX = 196m
*.phoneA[0].mobility.initialY = 63m
*.phoneA[0].mobility.initialZ = 0m
*.phoneA[1].mobility.initialX = 152m
*.phoneA[1].mobility.initialY = 190m
*.phoneA[1].mobility.initialZ = 0m
*.watchA[0].mobility.initialX = 248m
*.watchA[0].mobility.initialY = 82m
*.watchA[0].mobility.initialZ = 0m
*.cameraB[0].mobility.initialX = 524m
*.cameraB[0].mobility.initialY = 100m
*.cameraB[0].mobility.initialZ = 0m
*.cameraB[1].mobility.initialX = 481m
*.cameraB[1].mobility.initialY = 240m
*.cameraB[1].mobility.initialZ = 0m
*.cameraB[2].mobility.initialX = 340m
*.cameraB[2].mobility.initialY = 180m
*.cameraB[2].mobility.initialZ = 0m
*.watchB[0].mobility.initialX = 437m
*.watchB[0].mobility.initialY = 103m
*.watchB[0].mobility.initialZ = 0m
*.watchB[1].mobility.initialX = 507m
*.watchB[1].mobility.initialY = 56m
*.watchB[1].mobility.initialZ = 0m
*.phoneC[0].mobility.initialX = 769m
*.phoneC[0].mobility.initialY = 184m
*.phoneC[0].mobility.initialZ = 0m
*.phoneC[1].mobility.initialX = 716m
*.phoneC[1].mobility.initialY = 238m
*.phoneC[1].mobility.initialZ = 0m
*.watchC[0].mobility.initialX = 797m
*.watchC[0].mobility.initialY = 100m
*.watchC[0].mobility.initialZ = 0m
*.watchC[1].mobility.initialX = 793m
*.watchC[1].mobility.initialY = 64m
*.watchC[1].mobility.initialZ = 0m
*.watchC[2].mobility.initialX = 840m
*.watchC[2].mobility.initialY = 162m
*.watchC[2].mobility.initialZ = 0m
*.cameraD[0].mobility.initialX = 1123m
*.cameraD[0].mobility.initialY = 67m
*.cameraD[0].mobility.initialZ = 0m
*.phoneD[0].mobility.initialX = 1012m
*.phoneD[0].mobility.initialY = 176m
*.phoneD[0].mobility.initialZ = 0m
*.phoneD[1].mobility.initialX = 983m
*.phoneD[1].mobility.initialY = 92m
*.phoneD[1].mobility.initialZ = 0m
*.phoneD[2].mobility.initialX = 1096m
*.phoneD[2].mobility.initialY = 122m
*.phoneD[2].mobility.initialZ = 0m
*.watchD[0].mobility.initialX = 983m
*.watchD[0].mobility.initialY = 91m
*.watchD[0].mobility.initialZ = 0m
*.cameraE[0].mobility.initialX = 165m
*.cameraE[0].mobility.initialY = 500m
*.cameraE[0].mobility.initialZ = 0m
*.cameraE[1].mobility.initialX = 221m
*.cameraE[1].mobility.initialY = 419m
*.cameraE[1].mobility.initialZ = 0m
*.phoneE[0].mobility.initialX = 225m
*.phoneE[0].mobility.initialY = 494m
*.phoneE[0].mobility.initialZ = 0m
*.phoneE[1].mobility.initialX = 217m
*.phoneE[1].mobility.initialY = 418m
*.phoneE[1].mobility.initialZ = 0m
*.watchE[0].mobility.initialX = 189m
*.watchE[0].mobility.initialY = 459m
*.watchE[0].mobility.initialZ = 0m
*.phoneF[0].mobility.initialX = 366m
*.phoneF[0].mobility.initialY = 389m
*.phoneF[0].mobility.initialZ = 0m
*.watchF[0].mobility.initialX = 423m
*.watchF[0].mobility.initialY = 364m
*.watchF[0].mobility.initialZ = 0m
*.watchF[1].mobility.initialX = 559m
*.watchF[1].mobility.initialY = 424m
*.watchF[1].mobility.initialZ = 0m
*.watchF[2].mobility.initialX = 514m
*.watchF[2].mobility.initialY = 394m
*.watchF[2].mobility.initialZ = 0m
*.watchF[3].mobility.initialX = 518m
*.watchF[3].mobility.initialY = 453m
*.watchF[3].mobility.initialZ = 0m
*.cameraG[0].mobility.initialX = 778m
*.cameraG[0].mobility.initialY = 558m
*.cameraG[0].mobility.initialZ = 0m
*.cameraG[1].mobility.initialX = 725m
*.cameraG[1].mobility.initialY = 512m
*.cameraG[1].mobility.initialZ = 0m
*.phoneG[0].mobility.initialX = 819m
*.phoneG[0].mobility.initialY = 523m
*.phoneG[0].mobility.initialZ = 0m
*.phoneG[1].mobility.initialX = 832m
*.phoneG[1].mobility.initialY = 417m
*.phoneG[1].mobility.initialZ = 0m
*.watchG[0].mobility.initialX = 714m
*.watchG[0].mobility.initialY = 366m
*.watchG[0].mobility.initialZ = 0m
*.cameraH[0].mobility.initialX = 1118m
*.cameraH[0].mobility.initialY = 513m
*.cameraH[0].mobility.initialZ = 0m
*.watchH[0].mobility.initialX = 974m
*.watchH[0].mobility.initialY = 479m
*.watchH[0].mobility.initialZ = 0m
*.watchH[1].mobility.initialX = 957m
*.watchH[1].mobility.initialY = 384m
*.watchH[1].mobility.initialZ = 0m
*.watchH[2].mobility.initialX = 1104m
*.watchH[2].mobility.initialY = 498m
*.watchH[2].mobility.initialZ = 0m
*.watchH[3].mobility.initialX = 1098m
*.watchH[3].mobility.initialY = 548m
*.watchH[3].mobility.initialZ = 0m
*.cameraI[0].mobility.initialX = 151m
*.cameraI[0].mobility.initialY = 634m
*.cameraI[0].mobility.initialZ = 0m
*.cameraI[1].mobility.initialX = 187m
*.cameraI[1].mobility.initialY = 713m
*.cameraI[1].mobility.initialZ = 0m
*.cameraI[2].mobility.initialX = 102m
*.cameraI[2].mobility.initialY = 733m
*.cameraI[2].mobility.initialZ = 0m
*.phoneI[0].mobility.initialX = 74m
*.phoneI[0].mobility.initialY = 675m
*.phoneI[0].mobility.initialZ = 0m
*.watchI[0].mobility.initialX = 204m
*.watchI[0].mobility.initialY = 832m
*.watchI[0].mobility.initialZ = 0m
*.cameraJ[0].mobility.initialX = 346m
*.cameraJ[0].mobility.initialY = 729m
*.cameraJ[0].mobility.initialZ = 0m
*.cameraJ[1].mobility.initialX = 444m
*.cameraJ[1].mobility.initialY = 668m
*.cameraJ[1].mobility.initialZ = 0m
*.watchJ[0].mobility.initialX = 472m
*.watchJ[0].mobility.initialY = 714m
*.watchJ[0].mobility.initialZ = 0m
*.watchJ[1].mobility.initialX = 398m
*.watchJ[1].mobility.initialY = 738m
*.watchJ[1].mobility.initialZ = 0m
*.watchJ[2].mobility.initialX = 334m
*.watchJ[2].mobility.initialY = 716m
*.watchJ[2].mobility.initialZ = 0m

# --- Mobilite ---
**.camera*[*].mobility.typename = "StationaryMobility"
**.watch*[*].mobility.typename = "StationaryMobility"

**.phone*[*].mobility.typename = "RandomWaypointMobility"
**.phone*[*].mobility.speed = uniform(0.5mps, 2mps)
**.phone*[*].mobility.waitTime = uniform(1s, 5s)

# --- Applications UDP ---
# startTime=10s : apres convergence AODV et premier cycle PUF auth
*.phoneA[0].numApps = 1
*.phoneA[0].app[0].typename = "UdpBasicApp"
*.phoneA[0].app[0].destAddresses = "cameraB[0]"
*.phoneA[0].app[0].destPort = 5000
*.phoneA[0].app[0].messageLength = 512B
*.phoneA[0].app[0].sendInterval = 2s
*.phoneA[0].app[0].startTime = 10s
*.cameraB[0].numApps = 1
*.cameraB[0].app[0].typename = "UdpSink"
*.cameraB[0].app[0].localPort = 5000

*.phoneC[0].numApps = 1
*.phoneC[0].app[0].typename = "UdpBasicApp"
*.phoneC[0].app[0].destAddresses = "cameraA[0]"
*.phoneC[0].app[0].destPort = 5001
*.phoneC[0].app[0].messageLength = 512B
*.phoneC[0].app[0].sendInterval = 2s
*.phoneC[0].app[0].startTime = 10s
*.cameraA[0].numApps = 1
*.cameraA[0].app[0].typename = "UdpSink"
*.cameraA[0].app[0].localPort = 5001

*.phoneD[0].numApps = 1
*.phoneD[0].app[0].typename = "UdpBasicApp"
*.phoneD[0].app[0].destAddresses = "cameraE[0]"
*.phoneD[0].app[0].destPort = 5002
*.phoneD[0].app[0].messageLength = 512B
*.phoneD[0].app[0].sendInterval = 2s
*.phoneD[0].app[0].startTime = 10s
*.cameraE[0].numApps = 1
*.cameraE[0].app[0].typename = "UdpSink"
*.cameraE[0].app[0].localPort = 5002

# --- numApps=0 pour les autres noeuds ---
*.cameraA[1].numApps = 0
*.phoneA[1].numApps = 0
*.watchA[0].numApps = 0
*.cameraB[1].numApps = 0
*.cameraB[2].numApps = 0
*.watchB[0].numApps = 0
*.watchB[1].numApps = 0
*.phoneC[1].numApps = 0
*.watchC[0].numApps = 0
*.watchC[1].numApps = 0
*.watchC[2].numApps = 0
*.cameraD[0].numApps = 0
*.phoneD[1].numApps = 0
*.phoneD[2].numApps = 0
*.watchD[0].numApps = 0
*.cameraE[1].numApps = 0
*.phoneE[0].numApps = 0
*.phoneE[1].numApps = 0
*.watchE[0].numApps = 0
*.phoneF[0].numApps = 0
*.watchF[0].numApps = 0
*.watchF[1].numApps = 0
*.watchF[2].numApps = 0
*.watchF[3].numApps = 0
*.cameraG[0].numApps = 0
*.cameraG[1].numApps = 0
*.phoneG[0].numApps = 0
*.phoneG[1].numApps = 0
*.watchG[0].numApps = 0
*.cameraH[0].numApps = 0
*.watchH[0].numApps = 0
*.watchH[1].numApps = 0
*.watchH[2].numApps = 0
*.watchH[3].numApps = 0
*.cameraI[0].numApps = 0
*.cameraI[1].numApps = 0
*.cameraI[2].numApps = 0
*.phoneI[0].numApps = 0
*.watchI[0].numApps = 0
*.cameraJ[0].numApps = 0
*.cameraJ[1].numApps = 0
*.watchJ[0].numApps = 0
*.watchJ[1].numApps = 0
*.watchJ[2].numApps = 0