[General]
network = IoTNetwork
sim-time-limit = 600s
ned-path = ./:/home/ubuntuy/omnetpp-6.0.3/samples/inet4.5/src

**.constraintAreaMinX = 0m
**.constraintAreaMinY = 0m
**.constraintAreaMinZ = 0m
**.constraintAreaMaxX = 400m
**.constraintAreaMaxY = 300m
**.constraintAreaMaxZ = 0m

*.configurator.addStaticRoutes = false
*.configurator.addDefaultRoutes = false
*.configurator.addSubnetRoutes = false
*.configurator.config = xmldoc("config.xml")

**.wlan[*].radio.radioMediumModule = "radioMedium"
**.wlan[*].radio.transmitter.power = 100mW
**.wlan[*].bitrate = 11Mbps

# --- Parametres AODV ---
**.aodv.activeRouteTimeout = 30s
**.aodv.deletePeriod = 30s
**.aodv.helloInterval = 2s
**.aodv.allowedHelloLoss = 2
**.aodv.rreqRetries = 3
**.aodv.rreqRatelimit = 10
**.aodv.ttlStart = 2
**.aodv.ttlIncrement = 2
**.aodv.ttlThreshold = 7
**.aodv.jitterPar = 0.005s
**.aodv.displayBubbles = true

# --- PUF Auth App ---
**.pufAuthApp.authStartTime = 20s
**.pufAuthApp.authInterval = 15s
**.pufAuthApp.cmdenv-log-level = trace

# --- Positions initiales ---
*.cameraA[0].mobility.initialX = 19m
*.cameraA[0].mobility.initialY = 38m
*.cameraA[0].mobility.initialZ = 0m
*.cameraA[1].mobility.initialX = 23m
*.cameraA[1].mobility.initialY = 55m
*.cameraA[1].mobility.initialZ = 0m
*.watchA[0].mobility.initialX = 97m
*.watchA[0].mobility.initialY = 57m
*.watchA[0].mobility.initialZ = 0m
*.watchA[1].mobility.initialX = 120m
*.watchA[1].mobility.initialY = 84m
*.watchA[1].mobility.initialZ = 0m
*.watchA[2].mobility.initialX = 75m
*.watchA[2].mobility.initialY = 24m
*.watchA[2].mobility.initialZ = 0m
*.cameraB[0].mobility.initialX = 201m
*.cameraB[0].mobility.initialY = 103m
*.cameraB[0].mobility.initialZ = 0m
*.phoneB[0].mobility.initialX = 182m
*.phoneB[0].mobility.initialY = 67m
*.phoneB[0].mobility.initialZ = 0m
*.watchB[0].mobility.initialX = 168m
*.watchB[0].mobility.initialY = 104m
*.watchB[0].mobility.initialZ = 0m
*.watchB[1].mobility.initialX = 214m
*.watchB[1].mobility.initialY = 57m
*.watchB[1].mobility.initialZ = 0m
*.watchB[2].mobility.initialX = 168m
*.watchB[2].mobility.initialY = 78m
*.watchB[2].mobility.initialZ = 0m
*.phoneC[0].mobility.initialX = 309m
*.phoneC[0].mobility.initialY = 22m
*.phoneC[0].mobility.initialZ = 0m
*.phoneC[1].mobility.initialX = 362m
*.phoneC[1].mobility.initialY = 36m
*.phoneC[1].mobility.initialZ = 0m
*.phoneC[2].mobility.initialX = 311m
*.phoneC[2].mobility.initialY = 30m
*.phoneC[2].mobility.initialZ = 0m
*.watchC[0].mobility.initialX = 342m
*.watchC[0].mobility.initialY = 96m
*.watchC[0].mobility.initialZ = 0m
*.watchC[1].mobility.initialX = 340m
*.watchC[1].mobility.initialY = 112m
*.watchC[1].mobility.initialZ = 0m
*.cameraD[0].mobility.initialX = 30m
*.cameraD[0].mobility.initialY = 223m
*.cameraD[0].mobility.initialZ = 0m
*.cameraD[1].mobility.initialX = 90m
*.cameraD[1].mobility.initialY = 255m
*.cameraD[1].mobility.initialZ = 0m
*.phoneD[0].mobility.initialX = 76m
*.phoneD[0].mobility.initialY = 229m
*.phoneD[0].mobility.initialZ = 0m
*.phoneD[1].mobility.initialX = 97m
*.phoneD[1].mobility.initialY = 255m
*.phoneD[1].mobility.initialZ = 0m
*.watchD[0].mobility.initialX = 76m
*.watchD[0].mobility.initialY = 245m
*.watchD[0].mobility.initialZ = 0m
*.cameraE[0].mobility.initialX = 221m
*.cameraE[0].mobility.initialY = 253m
*.cameraE[0].mobility.initialZ = 0m
*.cameraE[1].mobility.initialX = 189m
*.cameraE[1].mobility.initialY = 236m
*.cameraE[1].mobility.initialZ = 0m
*.cameraE[2].mobility.initialX = 205m
*.cameraE[2].mobility.initialY = 185m
*.cameraE[2].mobility.initialZ = 0m
*.phoneE[0].mobility.initialX = 193m
*.phoneE[0].mobility.initialY = 193m
*.phoneE[0].mobility.initialZ = 0m
*.phoneE[1].mobility.initialX = 241m
*.phoneE[1].mobility.initialY = 195m
*.phoneE[1].mobility.initialZ = 0m
*.cameraF[0].mobility.initialX = 304m
*.cameraF[0].mobility.initialY = 221m
*.cameraF[0].mobility.initialZ = 0m
*.cameraF[1].mobility.initialX = 315m
*.cameraF[1].mobility.initialY = 178m
*.cameraF[1].mobility.initialZ = 0m
*.phoneF[0].mobility.initialX = 369m
*.phoneF[0].mobility.initialY = 219m
*.phoneF[0].mobility.initialZ = 0m
*.watchF[0].mobility.initialX = 346m
*.watchF[0].mobility.initialY = 212m
*.watchF[0].mobility.initialZ = 0m
*.watchF[1].mobility.initialX = 301m
*.watchF[1].mobility.initialY = 216m
*.watchF[1].mobility.initialZ = 0m

# --- Mobilite ---
**.camera*[*].mobility.typename = "StationaryMobility"
**.watch*[*].mobility.typename = "StationaryMobility"
**.phone*[*].mobility.typename = "RandomWaypointMobility"
**.phone*[*].mobility.speed = uniform(0.5mps, 2mps)
**.phone*[*].mobility.waitTime = uniform(1s, 5s)

# --- Applications UDP ---
*.phoneB[0].numApps = 1
*.phoneB[0].app[0].typename = "UdpBasicApp"
*.phoneB[0].app[0].destAddresses = "cameraA[0]"
*.phoneB[0].app[0].destPort = 5000
*.phoneB[0].app[0].messageLength = 512B
*.phoneB[0].app[0].sendInterval = 20s
*.phoneB[0].app[0].startTime = 40s
*.cameraA[0].numApps = 1
*.cameraA[0].app[0].typename = "UdpSink"
*.cameraA[0].app[0].localPort = 5000

*.phoneC[0].numApps = 1
*.phoneC[0].app[0].typename = "UdpBasicApp"
*.phoneC[0].app[0].destAddresses = "cameraB[0]"
*.phoneC[0].app[0].destPort = 5001
*.phoneC[0].app[0].messageLength = 512B
*.phoneC[0].app[0].sendInterval = 20s
*.phoneC[0].app[0].startTime = 40s
*.cameraB[0].numApps = 1
*.cameraB[0].app[0].typename = "UdpSink"
*.cameraB[0].app[0].localPort = 5001

*.phoneD[0].numApps = 1
*.phoneD[0].app[0].typename = "UdpBasicApp"
*.phoneD[0].app[0].destAddresses = "cameraE[0]"
*.phoneD[0].app[0].destPort = 5002
*.phoneD[0].app[0].messageLength = 512B
*.phoneD[0].app[0].sendInterval = 20s
*.phoneD[0].app[0].startTime = 40s
*.cameraE[0].numApps = 1
*.cameraE[0].app[0].typename = "UdpSink"
*.cameraE[0].app[0].localPort = 5002

# --- numApps=0 pour les autres noeuds ---
*.cameraA[1].numApps = 0
*.watchA[0].numApps = 0
*.watchA[1].numApps = 0
*.watchA[2].numApps = 0
*.watchB[0].numApps = 0
*.watchB[1].numApps = 0
*.watchB[2].numApps = 0
*.phoneC[1].numApps = 0
*.phoneC[2].numApps = 0
*.watchC[0].numApps = 0
*.watchC[1].numApps = 0
*.cameraD[0].numApps = 0
*.cameraD[1].numApps = 0
*.phoneD[1].numApps = 0
*.watchD[0].numApps = 0
*.cameraE[1].numApps = 0
*.cameraE[2].numApps = 0
*.phoneE[0].numApps = 0
*.phoneE[1].numApps = 0
*.cameraF[0].numApps = 0
*.cameraF[1].numApps = 0
*.phoneF[0].numApps = 0
*.watchF[0].numApps = 0
*.watchF[1].numApps = 0